Version 4
SHEET 1 1188 804
WIRE -224 -160 -224 -176
WIRE 112 -144 32 -144
WIRE 432 -144 112 -144
WIRE 592 -144 432 -144
WIRE 656 -144 592 -144
WIRE 112 -112 112 -144
WIRE 112 -112 48 -112
WIRE 432 -112 432 -144
WIRE 496 -112 432 -112
WIRE -384 -96 -384 -176
WIRE -224 -96 -224 -160
WIRE 112 -80 112 -112
WIRE 432 -80 432 -112
WIRE 272 -64 160 -64
WIRE 384 -64 272 -64
WIRE 48 -32 48 -112
WIRE 112 -32 48 -32
WIRE 496 -32 496 -112
WIRE 496 -32 432 -32
WIRE -736 0 -736 -16
WIRE -736 80 -736 0
WIRE -176 112 -224 112
WIRE -48 112 -176 112
WIRE 112 112 112 16
WIRE 112 112 -48 112
WIRE 432 112 432 16
WIRE 576 112 432 112
WIRE 704 112 576 112
WIRE 816 112 704 112
WIRE 112 160 112 112
WIRE 432 160 432 112
WIRE 144 208 112 208
WIRE 432 208 400 208
WIRE -64 240 -176 240
WIRE 64 240 -64 240
WIRE 592 240 480 240
WIRE 704 240 592 240
WIRE -736 256 -736 160
WIRE -656 256 -736 256
WIRE 144 256 144 208
WIRE 144 256 112 256
WIRE 400 256 400 208
WIRE 432 256 400 256
WIRE -736 288 -736 256
WIRE 112 304 112 256
WIRE 272 304 112 304
WIRE 432 304 432 256
WIRE 432 304 272 304
WIRE -736 336 -768 336
WIRE 352 352 272 352
WIRE -656 368 -656 256
WIRE -656 368 -688 368
WIRE -768 384 -768 336
WIRE -736 384 -768 384
WIRE -656 384 -656 368
WIRE 224 384 -656 384
WIRE -736 432 -736 384
WIRE 272 432 272 400
WIRE 352 432 352 352
WIRE 352 432 272 432
WIRE 272 480 272 432
FLAG 656 -64 0
FLAG 704 320 0
FLAG -176 320 0
FLAG 592 -144 Vdd
FLAG -64 240 Vinp
FLAG 592 240 Vinm
FLAG 576 112 Voutp
FLAG -48 112 Voutm
FLAG 704 176 0
FLAG -176 176 0
FLAG 272 480 0
FLAG 272 -64 Vb
FLAG -384 -16 0
FLAG -224 -16 0
FLAG -224 -160 Vb
FLAG -736 432 0
FLAG -736 0 Vdd
SYMBOL nmos4 64 160 R0
WINDOW 123 9 112 Left 2
SYMATTR Value2 l=180n w=6.7u m=2
SYMATTR InstName M1
SYMATTR Value n18
SYMBOL nmos4 480 160 M0
WINDOW 123 9 113 Left 2
SYMATTR Value2 l=180n w=6.7u m=2
SYMATTR InstName M2
SYMATTR Value n18
SYMBOL voltage 656 -160 R0
WINDOW 123 0 0 Left 0
WINDOW 39 0 0 Left 0
SYMATTR InstName V1
SYMATTR Value 1.8
SYMBOL voltage -176 224 R0
WINDOW 123 24 124 Left 2
WINDOW 39 0 0 Left 0
SYMATTR Value2 AC 1m 0
SYMATTR InstName V2
SYMATTR Value 0.9
SYMBOL voltage 704 224 R0
WINDOW 123 24 124 Left 2
WINDOW 39 0 0 Left 0
SYMATTR Value2 AC 1m 180
SYMATTR InstName V3
SYMATTR Value 0.9
SYMBOL cap 688 112 R0
SYMATTR InstName C1
SYMATTR Value 1p
SYMBOL cap -192 112 R0
SYMATTR InstName C2
SYMATTR Value 1p
SYMBOL pmos4 160 16 R180
WINDOW 123 56 4 Left 2
SYMATTR Value2 l=180n w=7u m=2
SYMATTR InstName M3
SYMATTR Value p18
SYMBOL pmos4 384 16 M180
WINDOW 123 56 4 Left 2
SYMATTR Value2 l=180n w=7u m=2
SYMATTR InstName M4
SYMATTR Value p18
SYMBOL nmos4 224 304 R0
WINDOW 123 9 112 Left 2
SYMATTR Value2 l=l w=w m=9
SYMATTR InstName M5
SYMATTR Value n18
SYMBOL voltage -384 -112 R0
WINDOW 123 0 0 Left 0
WINDOW 39 0 0 Left 0
SYMATTR InstName V4
SYMATTR Value 0.6
SYMBOL voltage -224 -112 R0
WINDOW 123 0 0 Left 0
WINDOW 39 0 0 Left 0
SYMATTR InstName V5
SYMATTR Value 1.1
SYMBOL nmos4 -688 288 M0
WINDOW 123 56 100 Left 2
SYMATTR Value2 l=l w=w
SYMATTR InstName M6
SYMATTR Value n18
SYMBOL current -736 80 R0
WINDOW 123 0 0 Left 0
WINDOW 39 0 0 Left 0
SYMATTR InstName Iref1
SYMATTR Value 10µ
TEXT -1232 384 Left 2 !.include SCL_180nm.lib
TEXT 944 336 Left 2 !.ac dec 100 10 1G
TEXT 944 312 Left 2 !.op
TEXT 952 384 Left 2 !;dc V4 0 1.8 0.005
TEXT -1232 416 Left 2 !.param w=1u l=320n
